*SPEF "ieee 1481-1999"
*DESIGN "RCA_32"
*DATE "09:46:42 Saturday September 27, 2025"
*VENDOR "The OpenROAD Project"
*PROGRAM "OpenROAD"
*VERSION "v2.0-19290-g6c60401f9"
*DESIGN_FLOW "NAME_SCOPE LOCAL" "PIN_CAP NONE"
*DIVIDER /
*DELIMITER :
*BUS_DELIMITER []
*T_UNIT 1 NS
*C_UNIT 1 PF
*R_UNIT 1 OHM
*L_UNIT 1 HENRY

*NAME_MAP
*1 a[0]
*2 a[10]
*3 a[11]
*4 a[12]
*5 a[13]
*6 a[14]
*7 a[15]
*8 a[16]
*9 a[17]
*10 a[18]
*11 a[19]
*12 a[1]
*13 a[20]
*14 a[21]
*15 a[22]
*16 a[23]
*17 a[24]
*18 a[25]
*19 a[26]
*20 a[27]
*21 a[28]
*22 a[29]
*23 a[2]
*24 a[30]
*25 a[31]
*26 a[3]
*27 a[4]
*28 a[5]
*29 a[6]
*30 a[7]
*31 a[8]
*32 a[9]
*33 b[0]
*34 b[10]
*35 b[11]
*36 b[12]
*37 b[13]
*38 b[14]
*39 b[15]
*40 b[16]
*41 b[17]
*42 b[18]
*43 b[19]
*44 b[1]
*45 b[20]
*46 b[21]
*47 b[22]
*48 b[23]
*49 b[24]
*50 b[25]
*51 b[26]
*52 b[27]
*53 b[28]
*54 b[29]
*55 b[2]
*56 b[30]
*57 b[31]
*58 b[3]
*59 b[4]
*60 b[5]
*61 b[6]
*62 b[7]
*63 b[8]
*64 b[9]
*65 c1
*66 c2
*67 c3
*68 cin
*69 cout
*70 sum[0]
*71 sum[10]
*72 sum[11]
*73 sum[12]
*74 sum[13]
*75 sum[14]
*76 sum[15]
*77 sum[16]
*78 sum[17]
*79 sum[18]
*80 sum[19]
*81 sum[1]
*82 sum[20]
*83 sum[21]
*84 sum[22]
*85 sum[23]
*86 sum[24]
*87 sum[25]
*88 sum[26]
*89 sum[27]
*90 sum[28]
*91 sum[29]
*92 sum[2]
*93 sum[30]
*94 sum[31]
*95 sum[3]
*96 sum[4]
*97 sum[5]
*98 sum[6]
*99 sum[7]
*100 sum[8]
*101 sum[9]
*102 M0/c1
*103 M0/M0/c1
*104 M0/M0/c2
*105 M0/M0/c3
*106 M0/M0/M0/_0_
*107 M0/M0/M0/_1_
*108 M0/M0/M0/_2_
*109 M0/M0/M0/_3_
*110 M0/M0/M1/_0_
*111 M0/M0/M1/_1_
*112 M0/M0/M1/_2_
*113 M0/M0/M1/_3_
*114 M0/M0/M2/_0_
*115 M0/M0/M2/_1_
*116 M0/M0/M2/_2_
*117 M0/M0/M2/_3_
*118 M0/M0/M3/_0_
*119 M0/M0/M3/_1_
*120 M0/M0/M3/_2_
*121 M0/M0/M3/_3_
*122 M0/M1/c1
*123 M0/M1/c2
*124 M0/M1/c3
*125 M0/M1/M0/_0_
*126 M0/M1/M0/_1_
*127 M0/M1/M0/_2_
*128 M0/M1/M0/_3_
*129 M0/M1/M1/_0_
*130 M0/M1/M1/_1_
*131 M0/M1/M1/_2_
*132 M0/M1/M1/_3_
*133 M0/M1/M2/_0_
*134 M0/M1/M2/_1_
*135 M0/M1/M2/_2_
*136 M0/M1/M2/_3_
*137 M0/M1/M3/_0_
*138 M0/M1/M3/_1_
*139 M0/M1/M3/_2_
*140 M0/M1/M3/_3_
*141 M1/c1
*142 M1/M0/c1
*143 M1/M0/c2
*144 M1/M0/c3
*145 M1/M0/M0/_0_
*146 M1/M0/M0/_1_
*147 M1/M0/M0/_2_
*148 M1/M0/M0/_3_
*149 M1/M0/M1/_0_
*150 M1/M0/M1/_1_
*151 M1/M0/M1/_2_
*152 M1/M0/M1/_3_
*153 M1/M0/M2/_0_
*154 M1/M0/M2/_1_
*155 M1/M0/M2/_2_
*156 M1/M0/M2/_3_
*157 M1/M0/M3/_0_
*158 M1/M0/M3/_1_
*159 M1/M0/M3/_2_
*160 M1/M0/M3/_3_
*161 M1/M1/c1
*162 M1/M1/c2
*163 M1/M1/c3
*164 M1/M1/M0/_0_
*165 M1/M1/M0/_1_
*166 M1/M1/M0/_2_
*167 M1/M1/M0/_3_
*168 M1/M1/M1/_0_
*169 M1/M1/M1/_1_
*170 M1/M1/M1/_2_
*171 M1/M1/M1/_3_
*172 M1/M1/M2/_0_
*173 M1/M1/M2/_1_
*174 M1/M1/M2/_2_
*175 M1/M1/M2/_3_
*176 M1/M1/M3/_0_
*177 M1/M1/M3/_1_
*178 M1/M1/M3/_2_
*179 M1/M1/M3/_3_
*180 M2/c1
*181 M2/M0/c1
*182 M2/M0/c2
*183 M2/M0/c3
*184 M2/M0/M0/_0_
*185 M2/M0/M0/_1_
*186 M2/M0/M0/_2_
*187 M2/M0/M0/_3_
*188 M2/M0/M1/_0_
*189 M2/M0/M1/_1_
*190 M2/M0/M1/_2_
*191 M2/M0/M1/_3_
*192 M2/M0/M2/_0_
*193 M2/M0/M2/_1_
*194 M2/M0/M2/_2_
*195 M2/M0/M2/_3_
*196 M2/M0/M3/_0_
*197 M2/M0/M3/_1_
*198 M2/M0/M3/_2_
*199 M2/M0/M3/_3_
*200 M2/M1/c1
*201 M2/M1/c2
*202 M2/M1/c3
*203 M2/M1/M0/_0_
*204 M2/M1/M0/_1_
*205 M2/M1/M0/_2_
*206 M2/M1/M0/_3_
*207 M2/M1/M1/_0_
*208 M2/M1/M1/_1_
*209 M2/M1/M1/_2_
*210 M2/M1/M1/_3_
*211 M2/M1/M2/_0_
*212 M2/M1/M2/_1_
*213 M2/M1/M2/_2_
*214 M2/M1/M2/_3_
*215 M2/M1/M3/_0_
*216 M2/M1/M3/_1_
*217 M2/M1/M3/_2_
*218 M2/M1/M3/_3_
*219 M3/c1
*220 M3/M0/c1
*221 M3/M0/c2
*222 M3/M0/c3
*223 M3/M0/M0/_0_
*224 M3/M0/M0/_1_
*225 M3/M0/M0/_2_
*226 M3/M0/M0/_3_
*227 M3/M0/M1/_0_
*228 M3/M0/M1/_1_
*229 M3/M0/M1/_2_
*230 M3/M0/M1/_3_
*231 M3/M0/M2/_0_
*232 M3/M0/M2/_1_
*233 M3/M0/M2/_2_
*234 M3/M0/M2/_3_
*235 M3/M0/M3/_0_
*236 M3/M0/M3/_1_
*237 M3/M0/M3/_2_
*238 M3/M0/M3/_3_
*239 M3/M1/c1
*240 M3/M1/c2
*241 M3/M1/c3
*242 M3/M1/M0/_0_
*243 M3/M1/M0/_1_
*244 M3/M1/M0/_2_
*245 M3/M1/M0/_3_
*246 M3/M1/M1/_0_
*247 M3/M1/M1/_1_
*248 M3/M1/M1/_2_
*249 M3/M1/M1/_3_
*250 M3/M1/M2/_0_
*251 M3/M1/M2/_1_
*252 M3/M1/M2/_2_
*253 M3/M1/M2/_3_
*254 M3/M1/M3/_0_
*255 M3/M1/M3/_1_
*256 M3/M1/M3/_2_
*257 M3/M1/M3/_3_
*258 M0/M0/M0/_4_
*259 M0/M0/M0/_5_
*260 M0/M0/M0/_6_
*261 M0/M0/M0/_7_
*262 M0/M0/M0/_8_
*263 M0/M0/M0/_9_
*264 M0/M0/M1/_4_
*265 M0/M0/M1/_5_
*266 M0/M0/M1/_6_
*267 M0/M0/M1/_7_
*268 M0/M0/M1/_8_
*269 M0/M0/M1/_9_
*270 M0/M0/M2/_4_
*271 M0/M0/M2/_5_
*272 M0/M0/M2/_6_
*273 M0/M0/M2/_7_
*274 M0/M0/M2/_8_
*275 M0/M0/M2/_9_
*276 M0/M0/M3/_4_
*277 M0/M0/M3/_5_
*278 M0/M0/M3/_6_
*279 M0/M0/M3/_7_
*280 M0/M0/M3/_8_
*281 M0/M0/M3/_9_
*282 M0/M1/M0/_4_
*283 M0/M1/M0/_5_
*284 M0/M1/M0/_6_
*285 M0/M1/M0/_7_
*286 M0/M1/M0/_8_
*287 M0/M1/M0/_9_
*288 M0/M1/M1/_4_
*289 M0/M1/M1/_5_
*290 M0/M1/M1/_6_
*291 M0/M1/M1/_7_
*292 M0/M1/M1/_8_
*293 M0/M1/M1/_9_
*294 M0/M1/M2/_4_
*295 M0/M1/M2/_5_
*296 M0/M1/M2/_6_
*297 M0/M1/M2/_7_
*298 M0/M1/M2/_8_
*299 M0/M1/M2/_9_
*300 M0/M1/M3/_4_
*301 M0/M1/M3/_5_
*302 M0/M1/M3/_6_
*303 M0/M1/M3/_7_
*304 M0/M1/M3/_8_
*305 M0/M1/M3/_9_
*306 M1/M0/M0/_4_
*307 M1/M0/M0/_5_
*308 M1/M0/M0/_6_
*309 M1/M0/M0/_7_
*310 M1/M0/M0/_8_
*311 M1/M0/M0/_9_
*312 M1/M0/M1/_4_
*313 M1/M0/M1/_5_
*314 M1/M0/M1/_6_
*315 M1/M0/M1/_7_
*316 M1/M0/M1/_8_
*317 M1/M0/M1/_9_
*318 M1/M0/M2/_4_
*319 M1/M0/M2/_5_
*320 M1/M0/M2/_6_
*321 M1/M0/M2/_7_
*322 M1/M0/M2/_8_
*323 M1/M0/M2/_9_
*324 M1/M0/M3/_4_
*325 M1/M0/M3/_5_
*326 M1/M0/M3/_6_
*327 M1/M0/M3/_7_
*328 M1/M0/M3/_8_
*329 M1/M0/M3/_9_
*330 M1/M1/M0/_4_
*331 M1/M1/M0/_5_
*332 M1/M1/M0/_6_
*333 M1/M1/M0/_7_
*334 M1/M1/M0/_8_
*335 M1/M1/M0/_9_
*336 M1/M1/M1/_4_
*337 M1/M1/M1/_5_
*338 M1/M1/M1/_6_
*339 M1/M1/M1/_7_
*340 M1/M1/M1/_8_
*341 M1/M1/M1/_9_
*342 M1/M1/M2/_4_
*343 M1/M1/M2/_5_
*344 M1/M1/M2/_6_
*345 M1/M1/M2/_7_
*346 M1/M1/M2/_8_
*347 M1/M1/M2/_9_
*348 M1/M1/M3/_4_
*349 M1/M1/M3/_5_
*350 M1/M1/M3/_6_
*351 M1/M1/M3/_7_
*352 M1/M1/M3/_8_
*353 M1/M1/M3/_9_
*354 M2/M0/M0/_4_
*355 M2/M0/M0/_5_
*356 M2/M0/M0/_6_
*357 M2/M0/M0/_7_
*358 M2/M0/M0/_8_
*359 M2/M0/M0/_9_
*360 M2/M0/M1/_4_
*361 M2/M0/M1/_5_
*362 M2/M0/M1/_6_
*363 M2/M0/M1/_7_
*364 M2/M0/M1/_8_
*365 M2/M0/M1/_9_
*366 M2/M0/M2/_4_
*367 M2/M0/M2/_5_
*368 M2/M0/M2/_6_
*369 M2/M0/M2/_7_
*370 M2/M0/M2/_8_
*371 M2/M0/M2/_9_
*372 M2/M0/M3/_4_
*373 M2/M0/M3/_5_
*374 M2/M0/M3/_6_
*375 M2/M0/M3/_7_
*376 M2/M0/M3/_8_
*377 M2/M0/M3/_9_
*378 M2/M1/M0/_4_
*379 M2/M1/M0/_5_
*380 M2/M1/M0/_6_
*381 M2/M1/M0/_7_
*382 M2/M1/M0/_8_
*383 M2/M1/M0/_9_
*384 M2/M1/M1/_4_
*385 M2/M1/M1/_5_
*386 M2/M1/M1/_6_
*387 M2/M1/M1/_7_
*388 M2/M1/M1/_8_
*389 M2/M1/M1/_9_
*390 M2/M1/M2/_4_
*391 M2/M1/M2/_5_
*392 M2/M1/M2/_6_
*393 M2/M1/M2/_7_
*394 M2/M1/M2/_8_
*395 M2/M1/M2/_9_
*396 M2/M1/M3/_4_
*397 M2/M1/M3/_5_
*398 M2/M1/M3/_6_
*399 M2/M1/M3/_7_
*400 M2/M1/M3/_8_
*401 M2/M1/M3/_9_
*402 M3/M0/M0/_4_
*403 M3/M0/M0/_5_
*404 M3/M0/M0/_6_
*405 M3/M0/M0/_7_
*406 M3/M0/M0/_8_
*407 M3/M0/M0/_9_
*408 M3/M0/M1/_4_
*409 M3/M0/M1/_5_
*410 M3/M0/M1/_6_
*411 M3/M0/M1/_7_
*412 M3/M0/M1/_8_
*413 M3/M0/M1/_9_
*414 M3/M0/M2/_4_
*415 M3/M0/M2/_5_
*416 M3/M0/M2/_6_
*417 M3/M0/M2/_7_
*418 M3/M0/M2/_8_
*419 M3/M0/M2/_9_
*420 M3/M0/M3/_4_
*421 M3/M0/M3/_5_
*422 M3/M0/M3/_6_
*423 M3/M0/M3/_7_
*424 M3/M0/M3/_8_
*425 M3/M0/M3/_9_
*426 M3/M1/M0/_4_
*427 M3/M1/M0/_5_
*428 M3/M1/M0/_6_
*429 M3/M1/M0/_7_
*430 M3/M1/M0/_8_
*431 M3/M1/M0/_9_
*432 M3/M1/M1/_4_
*433 M3/M1/M1/_5_
*434 M3/M1/M1/_6_
*435 M3/M1/M1/_7_
*436 M3/M1/M1/_8_
*437 M3/M1/M1/_9_
*438 M3/M1/M2/_4_
*439 M3/M1/M2/_5_
*440 M3/M1/M2/_6_
*441 M3/M1/M2/_7_
*442 M3/M1/M2/_8_
*443 M3/M1/M2/_9_
*444 M3/M1/M3/_4_
*445 M3/M1/M3/_5_
*446 M3/M1/M3/_6_
*447 M3/M1/M3/_7_
*448 M3/M1/M3/_8_
*449 M3/M1/M3/_9_
*450 PHY_EDGE_ROW_0_Right_0
*451 PHY_EDGE_ROW_1_Right_1
*452 PHY_EDGE_ROW_2_Right_2
*453 PHY_EDGE_ROW_3_Right_3
*454 PHY_EDGE_ROW_4_Right_4
*455 PHY_EDGE_ROW_5_Right_5
*456 PHY_EDGE_ROW_6_Right_6
*457 PHY_EDGE_ROW_7_Right_7
*458 PHY_EDGE_ROW_8_Right_8
*459 PHY_EDGE_ROW_9_Right_9
*460 PHY_EDGE_ROW_10_Right_10
*461 PHY_EDGE_ROW_11_Right_11
*462 PHY_EDGE_ROW_12_Right_12
*463 PHY_EDGE_ROW_13_Right_13
*464 PHY_EDGE_ROW_14_Right_14
*465 PHY_EDGE_ROW_15_Right_15
*466 PHY_EDGE_ROW_16_Right_16
*467 PHY_EDGE_ROW_17_Right_17
*468 PHY_EDGE_ROW_18_Right_18
*469 PHY_EDGE_ROW_19_Right_19
*470 PHY_EDGE_ROW_20_Right_20
*471 PHY_EDGE_ROW_21_Right_21
*472 PHY_EDGE_ROW_22_Right_22
*473 PHY_EDGE_ROW_23_Right_23
*474 PHY_EDGE_ROW_24_Right_24
*475 PHY_EDGE_ROW_25_Right_25
*476 PHY_EDGE_ROW_26_Right_26
*477 PHY_EDGE_ROW_27_Right_27
*478 PHY_EDGE_ROW_28_Right_28
*479 PHY_EDGE_ROW_29_Right_29
*480 PHY_EDGE_ROW_30_Right_30
*481 PHY_EDGE_ROW_31_Right_31
*482 PHY_EDGE_ROW_32_Right_32
*483 PHY_EDGE_ROW_33_Right_33
*484 PHY_EDGE_ROW_34_Right_34
*485 PHY_EDGE_ROW_35_Right_35
*486 PHY_EDGE_ROW_36_Right_36
*487 PHY_EDGE_ROW_37_Right_37
*488 PHY_EDGE_ROW_38_Right_38
*489 PHY_EDGE_ROW_39_Right_39
*490 PHY_EDGE_ROW_40_Right_40
*491 PHY_EDGE_ROW_41_Right_41
*492 PHY_EDGE_ROW_42_Right_42
*493 PHY_EDGE_ROW_43_Right_43
*494 PHY_EDGE_ROW_44_Right_44
*495 PHY_EDGE_ROW_45_Right_45
*496 PHY_EDGE_ROW_46_Right_46
*497 PHY_EDGE_ROW_47_Right_47
*498 PHY_EDGE_ROW_48_Right_48
*499 PHY_EDGE_ROW_49_Right_49
*500 PHY_EDGE_ROW_50_Right_50
*501 PHY_EDGE_ROW_51_Right_51
*502 PHY_EDGE_ROW_52_Right_52
*503 PHY_EDGE_ROW_53_Right_53
*504 PHY_EDGE_ROW_54_Right_54
*505 PHY_EDGE_ROW_55_Right_55
*506 PHY_EDGE_ROW_56_Right_56
*507 PHY_EDGE_ROW_0_Left_57
*508 PHY_EDGE_ROW_1_Left_58
*509 PHY_EDGE_ROW_2_Left_59
*510 PHY_EDGE_ROW_3_Left_60
*511 PHY_EDGE_ROW_4_Left_61
*512 PHY_EDGE_ROW_5_Left_62
*513 PHY_EDGE_ROW_6_Left_63
*514 PHY_EDGE_ROW_7_Left_64
*515 PHY_EDGE_ROW_8_Left_65
*516 PHY_EDGE_ROW_9_Left_66
*517 PHY_EDGE_ROW_10_Left_67
*518 PHY_EDGE_ROW_11_Left_68
*519 PHY_EDGE_ROW_12_Left_69
*520 PHY_EDGE_ROW_13_Left_70
*521 PHY_EDGE_ROW_14_Left_71
*522 PHY_EDGE_ROW_15_Left_72
*523 PHY_EDGE_ROW_16_Left_73
*524 PHY_EDGE_ROW_17_Left_74
*525 PHY_EDGE_ROW_18_Left_75
*526 PHY_EDGE_ROW_19_Left_76
*527 PHY_EDGE_ROW_20_Left_77
*528 PHY_EDGE_ROW_21_Left_78
*529 PHY_EDGE_ROW_22_Left_79
*530 PHY_EDGE_ROW_23_Left_80
*531 PHY_EDGE_ROW_24_Left_81
*532 PHY_EDGE_ROW_25_Left_82
*533 PHY_EDGE_ROW_26_Left_83
*534 PHY_EDGE_ROW_27_Left_84
*535 PHY_EDGE_ROW_28_Left_85
*536 PHY_EDGE_ROW_29_Left_86
*537 PHY_EDGE_ROW_30_Left_87
*538 PHY_EDGE_ROW_31_Left_88
*539 PHY_EDGE_ROW_32_Left_89
*540 PHY_EDGE_ROW_33_Left_90
*541 PHY_EDGE_ROW_34_Left_91
*542 PHY_EDGE_ROW_35_Left_92
*543 PHY_EDGE_ROW_36_Left_93
*544 PHY_EDGE_ROW_37_Left_94
*545 PHY_EDGE_ROW_38_Left_95
*546 PHY_EDGE_ROW_39_Left_96
*547 PHY_EDGE_ROW_40_Left_97
*548 PHY_EDGE_ROW_41_Left_98
*549 PHY_EDGE_ROW_42_Left_99
*550 PHY_EDGE_ROW_43_Left_100
*551 PHY_EDGE_ROW_44_Left_101
*552 PHY_EDGE_ROW_45_Left_102
*553 PHY_EDGE_ROW_46_Left_103
*554 PHY_EDGE_ROW_47_Left_104
*555 PHY_EDGE_ROW_48_Left_105
*556 PHY_EDGE_ROW_49_Left_106
*557 PHY_EDGE_ROW_50_Left_107
*558 PHY_EDGE_ROW_51_Left_108
*559 PHY_EDGE_ROW_52_Left_109
*560 PHY_EDGE_ROW_53_Left_110
*561 PHY_EDGE_ROW_54_Left_111
*562 PHY_EDGE_ROW_55_Left_112
*563 PHY_EDGE_ROW_56_Left_113
*564 FILLER_0_1
*565 FILLER_0_33
*566 FILLER_0_65
*567 FILLER_0_97
*568 FILLER_0_129
*569 FILLER_0_161
*570 FILLER_0_193
*571 FILLER_0_225
*572 FILLER_0_257
*573 FILLER_0_289
*574 FILLER_0_321
*575 FILLER_0_353
*576 FILLER_0_385
*577 FILLER_0_417
*578 FILLER_1_1
*579 FILLER_1_33
*580 FILLER_1_65
*581 FILLER_1_97
*582 FILLER_1_129
*583 FILLER_1_161
*584 FILLER_1_193
*585 FILLER_1_225
*586 FILLER_1_257
*587 FILLER_1_289
*588 FILLER_1_321
*589 FILLER_1_353
*590 FILLER_1_385
*591 FILLER_1_417
*592 FILLER_2_1
*593 FILLER_2_33
*594 FILLER_2_65
*595 FILLER_2_97
*596 FILLER_2_129
*597 FILLER_2_161
*598 FILLER_2_193
*599 FILLER_2_225
*600 FILLER_2_257
*601 FILLER_2_289
*602 FILLER_2_321
*603 FILLER_2_353
*604 FILLER_2_385
*605 FILLER_2_417
*606 FILLER_3_1
*607 FILLER_3_33
*608 FILLER_3_65
*609 FILLER_3_97
*610 FILLER_3_129
*611 FILLER_3_161
*612 FILLER_3_193
*613 FILLER_3_225
*614 FILLER_3_257
*615 FILLER_3_289
*616 FILLER_3_321
*617 FILLER_3_353
*618 FILLER_3_385
*619 FILLER_3_417
*620 FILLER_4_1
*621 FILLER_4_33
*622 FILLER_4_65
*623 FILLER_4_97
*624 FILLER_4_129
*625 FILLER_4_161
*626 FILLER_4_193
*627 FILLER_4_225
*628 FILLER_4_257
*629 FILLER_4_289
*630 FILLER_4_321
*631 FILLER_4_353
*632 FILLER_4_385
*633 FILLER_4_417
*634 FILLER_5_1
*635 FILLER_5_33
*636 FILLER_5_65
*637 FILLER_5_97
*638 FILLER_5_129
*639 FILLER_5_161
*640 FILLER_5_193
*641 FILLER_5_225
*642 FILLER_5_233
*643 FILLER_5_241
*644 FILLER_5_249
*645 FILLER_5_281
*646 FILLER_5_313
*647 FILLER_5_345
*648 FILLER_5_377
*649 FILLER_5_409
*650 FILLER_5_417
*651 FILLER_6_1
*652 FILLER_6_33
*653 FILLER_6_65
*654 FILLER_6_97
*655 FILLER_6_129
*656 FILLER_6_161
*657 FILLER_6_193
*658 FILLER_6_225
*659 FILLER_6_233
*660 FILLER_6_237
*661 FILLER_6_239
*662 FILLER_6_243
*663 FILLER_6_248
*664 FILLER_6_280
*665 FILLER_6_312
*666 FILLER_6_344
*667 FILLER_6_376
*668 FILLER_6_408
*669 FILLER_6_416
*670 FILLER_6_420
*671 FILLER_7_1
*672 FILLER_7_33
*673 FILLER_7_65
*674 FILLER_7_97
*675 FILLER_7_129
*676 FILLER_7_161
*677 FILLER_7_193
*678 FILLER_7_225
*679 FILLER_7_233
*680 FILLER_7_237
*681 FILLER_7_243
*682 FILLER_7_275
*683 FILLER_7_307
*684 FILLER_7_339
*685 FILLER_7_371
*686 FILLER_7_403
*687 FILLER_7_419
*688 FILLER_8_1
*689 FILLER_8_33
*690 FILLER_8_65
*691 FILLER_8_97
*692 FILLER_8_129
*693 FILLER_8_161
*694 FILLER_8_193
*695 FILLER_8_225
*696 FILLER_8_243
*697 FILLER_8_251
*698 FILLER_8_256
*699 FILLER_8_288
*700 FILLER_8_320
*701 FILLER_8_352
*702 FILLER_8_384
*703 FILLER_8_416
*704 FILLER_8_420
*705 FILLER_9_1
*706 FILLER_9_33
*707 FILLER_9_65
*708 FILLER_9_97
*709 FILLER_9_129
*710 FILLER_9_161
*711 FILLER_9_193
*712 FILLER_9_225
*713 FILLER_9_233
*714 FILLER_9_237
*715 FILLER_9_239
*716 FILLER_9_246
*717 FILLER_9_256
*718 FILLER_9_261
*719 FILLER_9_293
*720 FILLER_9_325
*721 FILLER_9_357
*722 FILLER_9_389
*723 FILLER_10_1
*724 FILLER_10_33
*725 FILLER_10_65
*726 FILLER_10_97
*727 FILLER_10_129
*728 FILLER_10_161
*729 FILLER_10_193
*730 FILLER_10_225
*731 FILLER_10_241
*732 FILLER_10_245
*733 FILLER_10_251
*734 FILLER_10_283
*735 FILLER_10_315
*736 FILLER_10_347
*737 FILLER_10_379
*738 FILLER_10_411
*739 FILLER_10_419
*740 FILLER_11_1
*741 FILLER_11_33
*742 FILLER_11_65
*743 FILLER_11_97
*744 FILLER_11_129
*745 FILLER_11_161
*746 FILLER_11_193
*747 FILLER_11_225
*748 FILLER_11_257
*749 FILLER_11_289
*750 FILLER_11_321
*751 FILLER_11_353
*752 FILLER_11_385
*753 FILLER_11_417
*754 FILLER_12_1
*755 FILLER_12_33
*756 FILLER_12_65
*757 FILLER_12_97
*758 FILLER_12_129
*759 FILLER_12_161
*760 FILLER_12_193
*761 FILLER_12_225
*762 FILLER_12_257
*763 FILLER_12_289
*764 FILLER_12_321
*765 FILLER_12_353
*766 FILLER_12_385
*767 FILLER_12_417
*768 FILLER_13_1
*769 FILLER_13_33
*770 FILLER_13_65
*771 FILLER_13_97
*772 FILLER_13_129
*773 FILLER_13_161
*774 FILLER_13_193
*775 FILLER_13_225
*776 FILLER_13_257
*777 FILLER_13_289
*778 FILLER_13_321
*779 FILLER_13_353
*780 FILLER_13_385
*781 FILLER_13_417
*782 FILLER_14_1
*783 FILLER_14_33
*784 FILLER_14_65
*785 FILLER_14_97
*786 FILLER_14_129
*787 FILLER_14_161
*788 FILLER_14_193
*789 FILLER_14_209
*790 FILLER_14_217
*791 FILLER_14_221
*792 FILLER_14_223
*793 FILLER_14_226
*794 FILLER_14_258
*795 FILLER_14_290
*796 FILLER_14_322
*797 FILLER_14_354
*798 FILLER_14_386
*799 FILLER_14_418
*800 FILLER_14_420
*801 FILLER_15_1
*802 FILLER_15_33
*803 FILLER_15_65
*804 FILLER_15_97
*805 FILLER_15_129
*806 FILLER_15_161
*807 FILLER_15_193
*808 FILLER_15_225
*809 FILLER_15_257
*810 FILLER_15_289
*811 FILLER_15_321
*812 FILLER_15_353
*813 FILLER_15_385
*814 FILLER_15_417
*815 FILLER_16_1
*816 FILLER_16_33
*817 FILLER_16_65
*818 FILLER_16_97
*819 FILLER_16_129
*820 FILLER_16_161
*821 FILLER_16_193
*822 FILLER_16_225
*823 FILLER_16_257
*824 FILLER_16_289
*825 FILLER_16_321
*826 FILLER_16_353
*827 FILLER_16_385
*828 FILLER_16_417
*829 FILLER_17_1
*830 FILLER_17_33
*831 FILLER_17_65
*832 FILLER_17_97
*833 FILLER_17_129
*834 FILLER_17_161
*835 FILLER_17_193
*836 FILLER_17_225
*837 FILLER_17_257
*838 FILLER_17_289
*839 FILLER_17_321
*840 FILLER_17_353
*841 FILLER_17_385
*842 FILLER_17_417
*843 FILLER_18_1
*844 FILLER_18_33
*845 FILLER_18_65
*846 FILLER_18_97
*847 FILLER_18_129
*848 FILLER_18_161
*849 FILLER_18_193
*850 FILLER_18_201
*851 FILLER_18_205
*852 FILLER_18_237
*853 FILLER_18_269
*854 FILLER_18_301
*855 FILLER_18_333
*856 FILLER_18_365
*857 FILLER_18_397
*858 FILLER_18_413
*859 FILLER_19_1
*860 FILLER_19_33
*861 FILLER_19_65
*862 FILLER_19_97
*863 FILLER_19_129
*864 FILLER_19_161
*865 FILLER_19_196
*866 FILLER_19_204
*867 FILLER_19_212
*868 FILLER_19_244
*869 FILLER_19_276
*870 FILLER_19_284
*871 FILLER_19_288
*872 FILLER_19_296
*873 FILLER_19_304
*874 FILLER_19_310
*875 FILLER_19_315
*876 FILLER_19_325
*877 FILLER_19_357
*878 FILLER_19_373
*879 FILLER_19_381
*880 FILLER_19_385
*881 FILLER_19_390
*882 FILLER_19_395
*883 FILLER_19_400
*884 FILLER_19_416
*885 FILLER_19_420
*886 FILLER_20_1
*887 FILLER_20_33
*888 FILLER_20_65
*889 FILLER_20_97
*890 FILLER_20_129
*891 FILLER_20_161
*892 FILLER_20_193
*893 FILLER_20_197
*894 FILLER_20_205
*895 FILLER_20_211
*896 FILLER_20_216
*897 FILLER_20_248
*898 FILLER_20_256
*899 FILLER_20_260
*900 FILLER_20_292
*901 FILLER_20_294
*902 FILLER_20_298
*903 FILLER_20_306
*904 FILLER_20_314
*905 FILLER_20_319
*906 FILLER_20_329
*907 FILLER_20_334
*908 FILLER_20_338
*909 FILLER_20_342
*910 FILLER_20_358
*911 FILLER_20_365
*912 FILLER_20_373
*913 FILLER_20_377
*914 FILLER_20_379
*915 FILLER_20_386
*916 FILLER_20_418
*917 FILLER_20_420
*918 FILLER_21_1
*919 FILLER_21_33
*920 FILLER_21_55
*921 FILLER_21_87
*922 FILLER_21_119
*923 FILLER_21_127
*924 FILLER_21_132
*925 FILLER_21_137
*926 FILLER_21_169
*927 FILLER_21_185
*928 FILLER_21_187
*929 FILLER_21_194
*930 FILLER_21_202
*931 FILLER_21_209
*932 FILLER_21_241
*933 FILLER_21_243
*934 FILLER_21_250
*935 FILLER_21_258
*936 FILLER_21_264
*937 FILLER_21_269
*938 FILLER_21_273
*939 FILLER_21_275
*940 FILLER_21_278
*941 FILLER_21_294
*942 FILLER_21_302
*943 FILLER_21_310
*944 FILLER_21_314
*945 FILLER_21_320
*946 FILLER_21_322
*947 FILLER_21_326
*948 FILLER_21_331
*949 FILLER_21_363
*950 FILLER_21_395
*951 FILLER_21_411
*952 FILLER_21_419
*953 FILLER_22_1
*954 FILLER_22_33
*955 FILLER_22_49
*956 FILLER_22_57
*957 FILLER_22_62
*958 FILLER_22_67
*959 FILLER_22_99
*960 FILLER_22_115
*961 FILLER_22_125
*962 FILLER_22_133
*963 FILLER_22_139
*964 FILLER_22_155
*965 FILLER_22_169
*966 FILLER_22_177
*967 FILLER_22_195
*968 FILLER_22_227
*969 FILLER_22_235
*970 FILLER_22_239
*971 FILLER_22_241
*972 FILLER_22_244
*973 FILLER_22_276
*974 FILLER_22_284
*975 FILLER_22_288
*976 FILLER_22_320
*977 FILLER_22_352
*978 FILLER_22_384
*979 FILLER_22_416
*980 FILLER_22_420
*981 FILLER_23_1
*982 FILLER_23_33
*983 FILLER_23_49
*984 FILLER_23_61
*985 FILLER_23_69
*986 FILLER_23_73
*987 FILLER_23_77
*988 FILLER_23_109
*989 FILLER_23_117
*990 FILLER_23_121
*991 FILLER_23_129
*992 FILLER_23_135
*993 FILLER_23_143
*994 FILLER_23_147
*995 FILLER_23_163
*996 FILLER_23_166
*997 FILLER_23_173
*998 FILLER_23_179
*999 FILLER_23_184
*1000 FILLER_23_188
*1001 FILLER_23_190
*1002 FILLER_23_195
*1003 FILLER_23_227
*1004 FILLER_23_259
*1005 FILLER_23_273
*1006 FILLER_23_305
*1007 FILLER_23_337
*1008 FILLER_23_369
*1009 FILLER_23_401
*1010 FILLER_23_417
*1011 FILLER_24_1
*1012 FILLER_24_33
*1013 FILLER_24_65
*1014 FILLER_24_81
*1015 FILLER_24_89
*1016 FILLER_24_96
*1017 FILLER_24_128
*1018 FILLER_24_133
*1019 FILLER_24_138
*1020 FILLER_24_170
*1021 FILLER_24_174
*1022 FILLER_24_178
*1023 FILLER_24_186
*1024 FILLER_24_188
*1025 FILLER_24_192
*1026 FILLER_24_200
*1027 FILLER_24_205
*1028 FILLER_24_237
*1029 FILLER_24_243
*1030 FILLER_24_259
*1031 FILLER_24_261
*1032 FILLER_24_265
*1033 FILLER_24_273
*1034 FILLER_24_279
*1035 FILLER_24_311
*1036 FILLER_24_343
*1037 FILLER_24_375
*1038 FILLER_24_407
*1039 FILLER_24_415
*1040 FILLER_24_419
*1041 FILLER_25_1
*1042 FILLER_25_33
*1043 FILLER_25_65
*1044 FILLER_25_81
*1045 FILLER_25_89
*1046 FILLER_25_95
*1047 FILLER_25_127
*1048 FILLER_25_129
*1049 FILLER_25_132
*1050 FILLER_25_164
*1051 FILLER_25_196
*1052 FILLER_25_203
*1053 FILLER_25_235
*1054 FILLER_25_243
*1055 FILLER_25_247
*1056 FILLER_25_263
*1057 FILLER_25_267
*1058 FILLER_25_269
*1059 FILLER_25_273
*1060 FILLER_25_305
*1061 FILLER_25_337
*1062 FILLER_25_369
*1063 FILLER_25_401
*1064 FILLER_25_417
*1065 FILLER_26_1
*1066 FILLER_26_33
*1067 FILLER_26_65
*1068 FILLER_26_81
*1069 FILLER_26_83
*1070 FILLER_26_87
*1071 FILLER_26_92
*1072 FILLER_26_124
*1073 FILLER_26_156
*1074 FILLER_26_188
*1075 FILLER_26_220
*1076 FILLER_26_236
*1077 FILLER_26_238
*1078 FILLER_26_242
*1079 FILLER_26_274
*1080 FILLER_26_306
*1081 FILLER_26_338
*1082 FILLER_26_370
*1083 FILLER_26_402
*1084 FILLER_26_418
*1085 FILLER_26_420
*1086 FILLER_27_1
*1087 FILLER_27_33
*1088 FILLER_27_37
*1089 FILLER_27_40
*1090 FILLER_27_72
*1091 FILLER_27_104
*1092 FILLER_27_112
*1093 FILLER_27_116
*1094 FILLER_27_120
*1095 FILLER_27_132
*1096 FILLER_27_137
*1097 FILLER_27_142
*1098 FILLER_27_174
*1099 FILLER_27_206
*1100 FILLER_27_222
*1101 FILLER_27_226
*1102 FILLER_27_234
*1103 FILLER_27_236
*1104 FILLER_27_243
*1105 FILLER_27_248
*1106 FILLER_27_280
*1107 FILLER_27_312
*1108 FILLER_27_344
*1109 FILLER_27_376
*1110 FILLER_27_408
*1111 FILLER_27_416
*1112 FILLER_27_420
*1113 FILLER_28_1
*1114 FILLER_28_33
*1115 FILLER_28_65
*1116 FILLER_28_97
*1117 FILLER_28_113
*1118 FILLER_28_121
*1119 FILLER_28_125
*1120 FILLER_28_133
*1121 FILLER_28_141
*1122 FILLER_28_173
*1123 FILLER_28_205
*1124 FILLER_28_221
*1125 FILLER_28_229
*1126 FILLER_28_233
*1127 FILLER_28_238
*1128 FILLER_28_270
*1129 FILLER_28_302
*1130 FILLER_28_334
*1131 FILLER_28_366
*1132 FILLER_28_398
*1133 FILLER_28_414
*1134 FILLER_28_418
*1135 FILLER_28_420
*1136 FILLER_29_1
*1137 FILLER_29_33
*1138 FILLER_29_65
*1139 FILLER_29_97
*1140 FILLER_29_129
*1141 FILLER_29_161
*1142 FILLER_29_193
*1143 FILLER_29_225
*1144 FILLER_29_227
*1145 FILLER_29_234
*1146 FILLER_29_240
*1147 FILLER_29_245
*1148 FILLER_29_277
*1149 FILLER_29_309
*1150 FILLER_29_341
*1151 FILLER_29_373
*1152 FILLER_29_405
*1153 FILLER_30_1
*1154 FILLER_30_33
*1155 FILLER_30_65
*1156 FILLER_30_97
*1157 FILLER_30_129
*1158 FILLER_30_161
*1159 FILLER_30_193
*1160 FILLER_30_231
*1161 FILLER_30_238
*1162 FILLER_30_270
*1163 FILLER_30_302
*1164 FILLER_30_334
*1165 FILLER_30_366
*1166 FILLER_30_398
*1167 FILLER_30_414
*1168 FILLER_30_418
*1169 FILLER_30_420
*1170 FILLER_31_1
*1171 FILLER_31_33
*1172 FILLER_31_65
*1173 FILLER_31_97
*1174 FILLER_31_129
*1175 FILLER_31_161
*1176 FILLER_31_193
*1177 FILLER_31_209
*1178 FILLER_31_217
*1179 FILLER_31_221
*1180 FILLER_31_225
*1181 FILLER_31_229
*1182 FILLER_31_232
*1183 FILLER_31_264
*1184 FILLER_31_296
*1185 FILLER_31_328
*1186 FILLER_31_360
*1187 FILLER_31_392
*1188 FILLER_31_408
*1189 FILLER_31_416
*1190 FILLER_31_420
*1191 FILLER_32_1
*1192 FILLER_32_33
*1193 FILLER_32_65
*1194 FILLER_32_97
*1195 FILLER_32_129
*1196 FILLER_32_161
*1197 FILLER_32_193
*1198 FILLER_32_209
*1199 FILLER_32_217
*1200 FILLER_32_223
*1201 FILLER_32_231
*1202 FILLER_32_263
*1203 FILLER_32_295
*1204 FILLER_32_327
*1205 FILLER_32_359
*1206 FILLER_32_391
*1207 FILLER_32_407
*1208 FILLER_32_415
*1209 FILLER_32_419
*1210 FILLER_33_1
*1211 FILLER_33_17
*1212 FILLER_33_21
*1213 FILLER_33_25
*1214 FILLER_33_57
*1215 FILLER_33_65
*1216 FILLER_33_73
*1217 FILLER_33_105
*1218 FILLER_33_137
*1219 FILLER_33_141
*1220 FILLER_33_173
*1221 FILLER_33_205
*1222 FILLER_33_221
*1223 FILLER_33_225
*1224 FILLER_33_229
*1225 FILLER_33_237
*1226 FILLER_33_269
*1227 FILLER_33_301
*1228 FILLER_33_333
*1229 FILLER_33_365
*1230 FILLER_33_397
*1231 FILLER_33_413
*1232 FILLER_34_1
*1233 FILLER_34_9
*1234 FILLER_34_16
*1235 FILLER_34_24
*1236 FILLER_34_30
*1237 FILLER_34_34
*1238 FILLER_34_37
*1239 FILLER_34_41
*1240 FILLER_34_46
*1241 FILLER_34_78
*1242 FILLER_34_110
*1243 FILLER_34_142
*1244 FILLER_34_174
*1245 FILLER_34_206
*1246 FILLER_34_238
*1247 FILLER_34_270
*1248 FILLER_34_302
*1249 FILLER_34_334
*1250 FILLER_34_366
*1251 FILLER_34_398
*1252 FILLER_34_414
*1253 FILLER_34_418
*1254 FILLER_34_420
*1255 FILLER_35_1
*1256 FILLER_35_9
*1257 FILLER_35_14
*1258 FILLER_35_22
*1259 FILLER_35_28
*1260 FILLER_35_33
*1261 FILLER_35_37
*1262 FILLER_35_41
*1263 FILLER_35_47
*1264 FILLER_35_55
*1265 FILLER_35_87
*1266 FILLER_35_119
*1267 FILLER_35_151
*1268 FILLER_35_183
*1269 FILLER_35_215
*1270 FILLER_35_231
*1271 FILLER_35_235
*1272 FILLER_35_251
*1273 FILLER_35_253
*1274 FILLER_35_260
*1275 FILLER_35_292
*1276 FILLER_35_324
*1277 FILLER_35_356
*1278 FILLER_35_388
*1279 FILLER_35_420
*1280 FILLER_36_1
*1281 FILLER_36_17
*1282 FILLER_36_19
*1283 FILLER_36_26
*1284 FILLER_36_31
*1285 FILLER_36_36
*1286 FILLER_36_68
*1287 FILLER_36_100
*1288 FILLER_36_132
*1289 FILLER_36_164
*1290 FILLER_36_172
*1291 FILLER_36_176
*1292 FILLER_36_208
*1293 FILLER_36_240
*1294 FILLER_36_248
*1295 FILLER_36_250
*1296 FILLER_36_257
*1297 FILLER_36_289
*1298 FILLER_36_321
*1299 FILLER_36_353
*1300 FILLER_36_385
*1301 FILLER_36_417
*1302 FILLER_37_1
*1303 FILLER_37_33
*1304 FILLER_37_65
*1305 FILLER_37_97
*1306 FILLER_37_129
*1307 FILLER_37_161
*1308 FILLER_37_193
*1309 FILLER_37_225
*1310 FILLER_37_241
*1311 FILLER_37_249
*1312 FILLER_37_254
*1313 FILLER_37_259
*1314 FILLER_37_291
*1315 FILLER_37_323
*1316 FILLER_37_355
*1317 FILLER_37_387
*1318 FILLER_37_419
*1319 FILLER_38_1
*1320 FILLER_38_33
*1321 FILLER_38_65
*1322 FILLER_38_97
*1323 FILLER_38_129
*1324 FILLER_38_161
*1325 FILLER_38_193
*1326 FILLER_38_209
*1327 FILLER_38_217
*1328 FILLER_38_221
*1329 FILLER_38_225
*1330 FILLER_38_241
*1331 FILLER_38_245
*1332 FILLER_38_277
*1333 FILLER_38_309
*1334 FILLER_38_341
*1335 FILLER_38_373
*1336 FILLER_38_405
*1337 FILLER_39_1
*1338 FILLER_39_33
*1339 FILLER_39_65
*1340 FILLER_39_97
*1341 FILLER_39_129
*1342 FILLER_39_161
*1343 FILLER_39_193
*1344 FILLER_39_225
*1345 FILLER_39_233
*1346 FILLER_39_237
*1347 FILLER_39_242
*1348 FILLER_39_246
*1349 FILLER_39_278
*1350 FILLER_39_310
*1351 FILLER_39_342
*1352 FILLER_39_374
*1353 FILLER_39_406
*1354 FILLER_39_414
*1355 FILLER_39_418
*1356 FILLER_39_420
*1357 FILLER_40_1
*1358 FILLER_40_33
*1359 FILLER_40_65
*1360 FILLER_40_97
*1361 FILLER_40_129
*1362 FILLER_40_161
*1363 FILLER_40_193
*1364 FILLER_40_225
*1365 FILLER_40_227
*1366 FILLER_40_234
*1367 FILLER_40_240
*1368 FILLER_40_245
*1369 FILLER_40_277
*1370 FILLER_40_309
*1371 FILLER_40_341
*1372 FILLER_40_373
*1373 FILLER_40_405
*1374 FILLER_41_1
*1375 FILLER_41_33
*1376 FILLER_41_65
*1377 FILLER_41_97
*1378 FILLER_41_129
*1379 FILLER_41_161
*1380 FILLER_41_193
*1381 FILLER_41_209
*1382 FILLER_41_217
*1383 FILLER_41_221
*1384 FILLER_41_229
*1385 FILLER_41_237
*1386 FILLER_41_242
*1387 FILLER_41_247
*1388 FILLER_41_279
*1389 FILLER_41_311
*1390 FILLER_41_343
*1391 FILLER_41_375
*1392 FILLER_41_407
*1393 FILLER_41_415
*1394 FILLER_41_419
*1395 FILLER_42_1
*1396 FILLER_42_33
*1397 FILLER_42_65
*1398 FILLER_42_97
*1399 FILLER_42_129
*1400 FILLER_42_161
*1401 FILLER_42_193
*1402 FILLER_42_231
*1403 FILLER_42_236
*1404 FILLER_42_268
*1405 FILLER_42_300
*1406 FILLER_42_332
*1407 FILLER_42_364
*1408 FILLER_42_396
*1409 FILLER_42_412
*1410 FILLER_42_420
*1411 FILLER_43_1
*1412 FILLER_43_33
*1413 FILLER_43_65
*1414 FILLER_43_97
*1415 FILLER_43_129
*1416 FILLER_43_161
*1417 FILLER_43_193
*1418 FILLER_43_225
*1419 FILLER_43_257
*1420 FILLER_43_289
*1421 FILLER_43_321
*1422 FILLER_43_353
*1423 FILLER_43_385
*1424 FILLER_43_417
*1425 FILLER_44_1
*1426 FILLER_44_33
*1427 FILLER_44_65
*1428 FILLER_44_97
*1429 FILLER_44_129
*1430 FILLER_44_161
*1431 FILLER_44_193
*1432 FILLER_44_225
*1433 FILLER_44_257
*1434 FILLER_44_289
*1435 FILLER_44_321
*1436 FILLER_44_353
*1437 FILLER_44_385
*1438 FILLER_44_417
*1439 FILLER_45_1
*1440 FILLER_45_33
*1441 FILLER_45_65
*1442 FILLER_45_97
*1443 FILLER_45_129
*1444 FILLER_45_161
*1445 FILLER_45_169
*1446 FILLER_45_173
*1447 FILLER_45_181
*1448 FILLER_45_186
*1449 FILLER_45_191
*1450 FILLER_45_207
*1451 FILLER_45_214
*1452 FILLER_45_246
*1453 FILLER_45_278
*1454 FILLER_45_310
*1455 FILLER_45_342
*1456 FILLER_45_374
*1457 FILLER_45_406
*1458 FILLER_45_414
*1459 FILLER_45_418
*1460 FILLER_45_420
*1461 FILLER_46_1
*1462 FILLER_46_33
*1463 FILLER_46_65
*1464 FILLER_46_97
*1465 FILLER_46_129
*1466 FILLER_46_161
*1467 FILLER_46_177
*1468 FILLER_46_181
*1469 FILLER_46_187
*1470 FILLER_46_195
*1471 FILLER_46_201
*1472 FILLER_46_217
*1473 FILLER_46_221
*1474 FILLER_46_228
*1475 FILLER_46_260
*1476 FILLER_46_292
*1477 FILLER_46_324
*1478 FILLER_46_356
*1479 FILLER_46_388
*1480 FILLER_46_420
*1481 FILLER_47_1
*1482 FILLER_47_33
*1483 FILLER_47_65
*1484 FILLER_47_97
*1485 FILLER_47_129
*1486 FILLER_47_161
*1487 FILLER_47_169
*1488 FILLER_47_176
*1489 FILLER_47_192
*1490 FILLER_47_200
*1491 FILLER_47_204
*1492 FILLER_47_208
*1493 FILLER_47_213
*1494 FILLER_47_221
*1495 FILLER_47_227
*1496 FILLER_47_232
*1497 FILLER_47_237
*1498 FILLER_47_269
*1499 FILLER_47_301
*1500 FILLER_47_333
*1501 FILLER_47_365
*1502 FILLER_47_397
*1503 FILLER_47_413
*1504 FILLER_48_1
*1505 FILLER_48_33
*1506 FILLER_48_65
*1507 FILLER_48_97
*1508 FILLER_48_129
*1509 FILLER_48_167
*1510 FILLER_48_169
*1511 FILLER_48_173
*1512 FILLER_48_177
*1513 FILLER_48_209
*1514 FILLER_48_217
*1515 FILLER_48_221
*1516 FILLER_48_229
*1517 FILLER_48_233
*1518 FILLER_48_265
*1519 FILLER_48_297
*1520 FILLER_48_329
*1521 FILLER_48_361
*1522 FILLER_48_393
*1523 FILLER_48_409
*1524 FILLER_48_417
*1525 FILLER_49_1
*1526 FILLER_49_33
*1527 FILLER_49_65
*1528 FILLER_49_97
*1529 FILLER_49_129
*1530 FILLER_49_161
*1531 FILLER_49_163
*1532 FILLER_49_170
*1533 FILLER_49_176
*1534 FILLER_49_181
*1535 FILLER_49_185
*1536 FILLER_49_217
*1537 FILLER_49_221
*1538 FILLER_49_223
*1539 FILLER_49_226
*1540 FILLER_49_230
*1541 FILLER_49_235
*1542 FILLER_49_267
*1543 FILLER_49_299
*1544 FILLER_49_331
*1545 FILLER_49_363
*1546 FILLER_49_395
*1547 FILLER_49_411
*1548 FILLER_49_419
*1549 FILLER_50_1
*1550 FILLER_50_33
*1551 FILLER_50_65
*1552 FILLER_50_97
*1553 FILLER_50_129
*1554 FILLER_50_161
*1555 FILLER_50_169
*1556 FILLER_50_174
*1557 FILLER_50_206
*1558 FILLER_50_222
*1559 FILLER_50_226
*1560 FILLER_50_230
*1561 FILLER_50_238
*1562 FILLER_50_243
*1563 FILLER_50_275
*1564 FILLER_50_307
*1565 FILLER_50_339